4
  frequency =   957.5045 cm**-1 position   0/20
  O           0.000000          0.727898         -0.054486
  H           0.824967          0.891690          0.435891
  O           0.000000         -0.727898         -0.054486
  H          -0.824967         -0.891690          0.435891
4
  frequency =   957.5045 cm**-1 position   1/20
  O           0.000000          0.761398         -0.054986
  H           0.825467          0.890690          0.447391
  O           0.000000         -0.761398         -0.054986
  H          -0.825467         -0.890690          0.447391
4
  frequency =   957.5045 cm**-1 position   2/20
  O           0.000000          0.794898         -0.055486
  H           0.825967          0.889690          0.458891
  O           0.000000         -0.794898         -0.055486
  H          -0.825967         -0.889690          0.458891
4
  frequency =   957.5045 cm**-1 position   3/20
  O           0.000000          0.828398         -0.055986
  H           0.826467          0.888690          0.470391
  O           0.000000         -0.828398         -0.055986
  H          -0.826467         -0.888690          0.470391
4
  frequency =   957.5045 cm**-1 position   4/20
  O           0.000000          0.861898         -0.056486
  H           0.826967          0.887690          0.481891
  O           0.000000         -0.861898         -0.056486
  H          -0.826967         -0.887690          0.481891
4
  frequency =   957.5045 cm**-1 position   5/20
  O           0.000000          0.895398         -0.056986
  H           0.827467          0.886690          0.493391
  O           0.000000         -0.895398         -0.056986
  H          -0.827467         -0.886690          0.493391
4
  frequency =   957.5045 cm**-1 position   6/20
  O           0.000000          0.928898         -0.057486
  H           0.827967          0.885690          0.504891
  O           0.000000         -0.928898         -0.057486
  H          -0.827967         -0.885690          0.504891
4
  frequency =   957.5045 cm**-1 position   7/20
  O           0.000000          0.962398         -0.057986
  H           0.828467          0.884690          0.516391
  O           0.000000         -0.962398         -0.057986
  H          -0.828467         -0.884690          0.516391
4
  frequency =   957.5045 cm**-1 position   8/20
  O           0.000000          0.995898         -0.058486
  H           0.828967          0.883690          0.527891
  O           0.000000         -0.995898         -0.058486
  H          -0.828967         -0.883690          0.527891
4
  frequency =   957.5045 cm**-1 position   9/20
  O           0.000000          1.029398         -0.058986
  H           0.829467          0.882690          0.539391
  O           0.000000         -1.029398         -0.058986
  H          -0.829467         -0.882690          0.539391
4
  frequency =   957.5045 cm**-1 position  10/20
  O           0.000000          1.062898         -0.059486
  H           0.829967          0.881690          0.550891
  O           0.000000         -1.062898         -0.059486
  H          -0.829967         -0.881690          0.550891
4
  frequency =   957.5045 cm**-1 position  11/20
  O           0.000000          1.096398         -0.059986
  H           0.830467          0.880690          0.562391
  O           0.000000         -1.096398         -0.059986
  H          -0.830467         -0.880690          0.562391
4
  frequency =   957.5045 cm**-1 position  12/20
  O           0.000000          1.129898         -0.060486
  H           0.830967          0.879690          0.573891
  O           0.000000         -1.129898         -0.060486
  H          -0.830967         -0.879690          0.573891
4
  frequency =   957.5045 cm**-1 position  13/20
  O           0.000000          1.163398         -0.060986
  H           0.831467          0.878690          0.585391
  O           0.000000         -1.163398         -0.060986
  H          -0.831467         -0.878690          0.585391
4
  frequency =   957.5045 cm**-1 position  14/20
  O           0.000000          1.196898         -0.061486
  H           0.831967          0.877690          0.596891
  O           0.000000         -1.196898         -0.061486
  H          -0.831967         -0.877690          0.596891
4
  frequency =   957.5045 cm**-1 position  15/20
  O           0.000000          1.230398         -0.061986
  H           0.832467          0.876690          0.608391
  O           0.000000         -1.230398         -0.061986
  H          -0.832467         -0.876690          0.608391
4
  frequency =   957.5045 cm**-1 position  16/20
  O           0.000000          1.263898         -0.062486
  H           0.832967          0.875690          0.619891
  O           0.000000         -1.263898         -0.062486
  H          -0.832967         -0.875690          0.619891
4
  frequency =   957.5045 cm**-1 position  17/20
  O           0.000000          1.297398         -0.062986
  H           0.833467          0.874690          0.631391
  O           0.000000         -1.297398         -0.062986
  H          -0.833467         -0.874690          0.631391
4
  frequency =   957.5045 cm**-1 position  18/20
  O           0.000000          1.330898         -0.063486
  H           0.833967          0.873690          0.642891
  O           0.000000         -1.330898         -0.063486
  H          -0.833967         -0.873690          0.642891
4
  frequency =   957.5045 cm**-1 position  19/20
  O           0.000000          1.364398         -0.063986
  H           0.834467          0.872690          0.654391
  O           0.000000         -1.364398         -0.063986
  H          -0.834467         -0.872690          0.654391
4
  frequency =   957.5045 cm**-1 position  20/20
  O           0.000000          1.397898         -0.064486
  H           0.834967          0.871690          0.665891
  O           0.000000         -1.397898         -0.064486
  H          -0.834967         -0.871690          0.665891
4
  frequency =   957.5045 cm**-1 position  19/20
  O           0.000000          1.364398         -0.063986
  H           0.834467          0.872690          0.654391
  O           0.000000         -1.364398         -0.063986
  H          -0.834467         -0.872690          0.654391
4
  frequency =   957.5045 cm**-1 position  18/20
  O           0.000000          1.330898         -0.063486
  H           0.833967          0.873690          0.642891
  O           0.000000         -1.330898         -0.063486
  H          -0.833967         -0.873690          0.642891
4
  frequency =   957.5045 cm**-1 position  17/20
  O           0.000000          1.297398         -0.062986
  H           0.833467          0.874690          0.631391
  O           0.000000         -1.297398         -0.062986
  H          -0.833467         -0.874690          0.631391
4
  frequency =   957.5045 cm**-1 position  16/20
  O           0.000000          1.263898         -0.062486
  H           0.832967          0.875690          0.619891
  O           0.000000         -1.263898         -0.062486
  H          -0.832967         -0.875690          0.619891
4
  frequency =   957.5045 cm**-1 position  15/20
  O           0.000000          1.230398         -0.061986
  H           0.832467          0.876690          0.608391
  O           0.000000         -1.230398         -0.061986
  H          -0.832467         -0.876690          0.608391
4
  frequency =   957.5045 cm**-1 position  14/20
  O           0.000000          1.196898         -0.061486
  H           0.831967          0.877690          0.596891
  O           0.000000         -1.196898         -0.061486
  H          -0.831967         -0.877690          0.596891
4
  frequency =   957.5045 cm**-1 position  13/20
  O           0.000000          1.163398         -0.060986
  H           0.831467          0.878690          0.585391
  O           0.000000         -1.163398         -0.060986
  H          -0.831467         -0.878690          0.585391
4
  frequency =   957.5045 cm**-1 position  12/20
  O           0.000000          1.129898         -0.060486
  H           0.830967          0.879690          0.573891
  O           0.000000         -1.129898         -0.060486
  H          -0.830967         -0.879690          0.573891
4
  frequency =   957.5045 cm**-1 position  11/20
  O           0.000000          1.096398         -0.059986
  H           0.830467          0.880690          0.562391
  O           0.000000         -1.096398         -0.059986
  H          -0.830467         -0.880690          0.562391
4
  frequency =   957.5045 cm**-1 position  10/20
  O           0.000000          1.062898         -0.059486
  H           0.829967          0.881690          0.550891
  O           0.000000         -1.062898         -0.059486
  H          -0.829967         -0.881690          0.550891
4
  frequency =   957.5045 cm**-1 position   9/20
  O           0.000000          1.029398         -0.058986
  H           0.829467          0.882690          0.539391
  O           0.000000         -1.029398         -0.058986
  H          -0.829467         -0.882690          0.539391
4
  frequency =   957.5045 cm**-1 position   8/20
  O           0.000000          0.995898         -0.058486
  H           0.828967          0.883690          0.527891
  O           0.000000         -0.995898         -0.058486
  H          -0.828967         -0.883690          0.527891
4
  frequency =   957.5045 cm**-1 position   7/20
  O           0.000000          0.962398         -0.057986
  H           0.828467          0.884690          0.516391
  O           0.000000         -0.962398         -0.057986
  H          -0.828467         -0.884690          0.516391
4
  frequency =   957.5045 cm**-1 position   6/20
  O           0.000000          0.928898         -0.057486
  H           0.827967          0.885690          0.504891
  O           0.000000         -0.928898         -0.057486
  H          -0.827967         -0.885690          0.504891
4
  frequency =   957.5045 cm**-1 position   5/20
  O           0.000000          0.895398         -0.056986
  H           0.827467          0.886690          0.493391
  O           0.000000         -0.895398         -0.056986
  H          -0.827467         -0.886690          0.493391
4
  frequency =   957.5045 cm**-1 position   4/20
  O           0.000000          0.861898         -0.056486
  H           0.826967          0.887690          0.481891
  O           0.000000         -0.861898         -0.056486
  H          -0.826967         -0.887690          0.481891
4
  frequency =   957.5045 cm**-1 position   3/20
  O           0.000000          0.828398         -0.055986
  H           0.826467          0.888690          0.470391
  O           0.000000         -0.828398         -0.055986
  H          -0.826467         -0.888690          0.470391
4
  frequency =   957.5045 cm**-1 position   2/20
  O           0.000000          0.794898         -0.055486
  H           0.825967          0.889690          0.458891
  O           0.000000         -0.794898         -0.055486
  H          -0.825967         -0.889690          0.458891
4
  frequency =   957.5045 cm**-1 position   1/20
  O           0.000000          0.761398         -0.054986
  H           0.825467          0.890690          0.447391
  O           0.000000         -0.761398         -0.054986
  H          -0.825467         -0.890690          0.447391
4
  frequency =   957.5045 cm**-1 position   0/20
  O           0.000000          0.727898         -0.054486
  H           0.824967          0.891690          0.435891
  O           0.000000         -0.727898         -0.054486
  H          -0.824967         -0.891690          0.435891
4
  frequency =   957.5045 cm**-1 position  -1/20
  O           0.000000          0.694398         -0.053986
  H           0.824467          0.892690          0.424391
  O           0.000000         -0.694398         -0.053986
  H          -0.824467         -0.892690          0.424391
4
  frequency =   957.5045 cm**-1 position  -2/20
  O           0.000000          0.660898         -0.053486
  H           0.823967          0.893690          0.412891
  O           0.000000         -0.660898         -0.053486
  H          -0.823967         -0.893690          0.412891
4
  frequency =   957.5045 cm**-1 position  -3/20
  O           0.000000          0.627398         -0.052986
  H           0.823467          0.894690          0.401391
  O           0.000000         -0.627398         -0.052986
  H          -0.823467         -0.894690          0.401391
4
  frequency =   957.5045 cm**-1 position  -4/20
  O           0.000000          0.593898         -0.052486
  H           0.822967          0.895690          0.389891
  O           0.000000         -0.593898         -0.052486
  H          -0.822967         -0.895690          0.389891
4
  frequency =   957.5045 cm**-1 position  -5/20
  O           0.000000          0.560398         -0.051986
  H           0.822467          0.896690          0.378391
  O           0.000000         -0.560398         -0.051986
  H          -0.822467         -0.896690          0.378391
4
  frequency =   957.5045 cm**-1 position  -6/20
  O           0.000000          0.526898         -0.051486
  H           0.821967          0.897690          0.366891
  O           0.000000         -0.526898         -0.051486
  H          -0.821967         -0.897690          0.366891
4
  frequency =   957.5045 cm**-1 position  -7/20
  O           0.000000          0.493398         -0.050986
  H           0.821467          0.898690          0.355391
  O           0.000000         -0.493398         -0.050986
  H          -0.821467         -0.898690          0.355391
4
  frequency =   957.5045 cm**-1 position  -8/20
  O           0.000000          0.459898         -0.050486
  H           0.820967          0.899690          0.343891
  O           0.000000         -0.459898         -0.050486
  H          -0.820967         -0.899690          0.343891
4
  frequency =   957.5045 cm**-1 position  -9/20
  O           0.000000          0.426398         -0.049986
  H           0.820467          0.900690          0.332391
  O           0.000000         -0.426398         -0.049986
  H          -0.820467         -0.900690          0.332391
4
  frequency =   957.5045 cm**-1 position -10/20
  O           0.000000          0.392898         -0.049486
  H           0.819967          0.901690          0.320891
  O           0.000000         -0.392898         -0.049486
  H          -0.819967         -0.901690          0.320891
4
  frequency =   957.5045 cm**-1 position -11/20
  O           0.000000          0.359398         -0.048986
  H           0.819467          0.902690          0.309391
  O           0.000000         -0.359398         -0.048986
  H          -0.819467         -0.902690          0.309391
4
  frequency =   957.5045 cm**-1 position -12/20
  O           0.000000          0.325898         -0.048486
  H           0.818967          0.903690          0.297891
  O           0.000000         -0.325898         -0.048486
  H          -0.818967         -0.903690          0.297891
4
  frequency =   957.5045 cm**-1 position -13/20
  O           0.000000          0.292398         -0.047986
  H           0.818467          0.904690          0.286391
  O           0.000000         -0.292398         -0.047986
  H          -0.818467         -0.904690          0.286391
4
  frequency =   957.5045 cm**-1 position -14/20
  O           0.000000          0.258898         -0.047486
  H           0.817967          0.905690          0.274891
  O           0.000000         -0.258898         -0.047486
  H          -0.817967         -0.905690          0.274891
4
  frequency =   957.5045 cm**-1 position -15/20
  O           0.000000          0.225398         -0.046986
  H           0.817467          0.906690          0.263391
  O           0.000000         -0.225398         -0.046986
  H          -0.817467         -0.906690          0.263391
4
  frequency =   957.5045 cm**-1 position -16/20
  O           0.000000          0.191898         -0.046486
  H           0.816967          0.907690          0.251891
  O           0.000000         -0.191898         -0.046486
  H          -0.816967         -0.907690          0.251891
4
  frequency =   957.5045 cm**-1 position -17/20
  O           0.000000          0.158398         -0.045986
  H           0.816467          0.908690          0.240391
  O           0.000000         -0.158398         -0.045986
  H          -0.816467         -0.908690          0.240391
4
  frequency =   957.5045 cm**-1 position -18/20
  O           0.000000          0.124898         -0.045486
  H           0.815967          0.909690          0.228891
  O           0.000000         -0.124898         -0.045486
  H          -0.815967         -0.909690          0.228891
4
  frequency =   957.5045 cm**-1 position -19/20
  O           0.000000          0.091398         -0.044986
  H           0.815467          0.910690          0.217391
  O           0.000000         -0.091398         -0.044986
  H          -0.815467         -0.910690          0.217391
4
  frequency =   957.5045 cm**-1 position -20/20
  O           0.000000          0.057898         -0.044486
  H           0.814967          0.911690          0.205891
  O           0.000000         -0.057898         -0.044486
  H          -0.814967         -0.911690          0.205891
4
  frequency =   957.5045 cm**-1 position -19/20
  O           0.000000          0.091398         -0.044986
  H           0.815467          0.910690          0.217391
  O           0.000000         -0.091398         -0.044986
  H          -0.815467         -0.910690          0.217391
4
  frequency =   957.5045 cm**-1 position -18/20
  O           0.000000          0.124898         -0.045486
  H           0.815967          0.909690          0.228891
  O           0.000000         -0.124898         -0.045486
  H          -0.815967         -0.909690          0.228891
4
  frequency =   957.5045 cm**-1 position -17/20
  O           0.000000          0.158398         -0.045986
  H           0.816467          0.908690          0.240391
  O           0.000000         -0.158398         -0.045986
  H          -0.816467         -0.908690          0.240391
4
  frequency =   957.5045 cm**-1 position -16/20
  O           0.000000          0.191898         -0.046486
  H           0.816967          0.907690          0.251891
  O           0.000000         -0.191898         -0.046486
  H          -0.816967         -0.907690          0.251891
4
  frequency =   957.5045 cm**-1 position -15/20
  O           0.000000          0.225398         -0.046986
  H           0.817467          0.906690          0.263391
  O           0.000000         -0.225398         -0.046986
  H          -0.817467         -0.906690          0.263391
4
  frequency =   957.5045 cm**-1 position -14/20
  O           0.000000          0.258898         -0.047486
  H           0.817967          0.905690          0.274891
  O           0.000000         -0.258898         -0.047486
  H          -0.817967         -0.905690          0.274891
4
  frequency =   957.5045 cm**-1 position -13/20
  O           0.000000          0.292398         -0.047986
  H           0.818467          0.904690          0.286391
  O           0.000000         -0.292398         -0.047986
  H          -0.818467         -0.904690          0.286391
4
  frequency =   957.5045 cm**-1 position -12/20
  O           0.000000          0.325898         -0.048486
  H           0.818967          0.903690          0.297891
  O           0.000000         -0.325898         -0.048486
  H          -0.818967         -0.903690          0.297891
4
  frequency =   957.5045 cm**-1 position -11/20
  O           0.000000          0.359398         -0.048986
  H           0.819467          0.902690          0.309391
  O           0.000000         -0.359398         -0.048986
  H          -0.819467         -0.902690          0.309391
4
  frequency =   957.5045 cm**-1 position -10/20
  O           0.000000          0.392898         -0.049486
  H           0.819967          0.901690          0.320891
  O           0.000000         -0.392898         -0.049486
  H          -0.819967         -0.901690          0.320891
4
  frequency =   957.5045 cm**-1 position  -9/20
  O           0.000000          0.426398         -0.049986
  H           0.820467          0.900690          0.332391
  O           0.000000         -0.426398         -0.049986
  H          -0.820467         -0.900690          0.332391
4
  frequency =   957.5045 cm**-1 position  -8/20
  O           0.000000          0.459898         -0.050486
  H           0.820967          0.899690          0.343891
  O           0.000000         -0.459898         -0.050486
  H          -0.820967         -0.899690          0.343891
4
  frequency =   957.5045 cm**-1 position  -7/20
  O           0.000000          0.493398         -0.050986
  H           0.821467          0.898690          0.355391
  O           0.000000         -0.493398         -0.050986
  H          -0.821467         -0.898690          0.355391
4
  frequency =   957.5045 cm**-1 position  -6/20
  O           0.000000          0.526898         -0.051486
  H           0.821967          0.897690          0.366891
  O           0.000000         -0.526898         -0.051486
  H          -0.821967         -0.897690          0.366891
4
  frequency =   957.5045 cm**-1 position  -5/20
  O           0.000000          0.560398         -0.051986
  H           0.822467          0.896690          0.378391
  O           0.000000         -0.560398         -0.051986
  H          -0.822467         -0.896690          0.378391
4
  frequency =   957.5045 cm**-1 position  -4/20
  O           0.000000          0.593898         -0.052486
  H           0.822967          0.895690          0.389891
  O           0.000000         -0.593898         -0.052486
  H          -0.822967         -0.895690          0.389891
4
  frequency =   957.5045 cm**-1 position  -3/20
  O           0.000000          0.627398         -0.052986
  H           0.823467          0.894690          0.401391
  O           0.000000         -0.627398         -0.052986
  H          -0.823467         -0.894690          0.401391
4
  frequency =   957.5045 cm**-1 position  -2/20
  O           0.000000          0.660898         -0.053486
  H           0.823967          0.893690          0.412891
  O           0.000000         -0.660898         -0.053486
  H          -0.823967         -0.893690          0.412891
4
  frequency =   957.5045 cm**-1 position  -1/20
  O           0.000000          0.694398         -0.053986
  H           0.824467          0.892690          0.424391
  O           0.000000         -0.694398         -0.053986
  H          -0.824467         -0.892690          0.424391
